           5
comment
   C     6.015177802397     5.954494439137     5.997859384407
   F     5.542083960025     5.661764853684     4.800002918444
   F     6.992756843550     5.122853506647     6.359641169251
   F     6.527824108833     7.215284889697     5.962086808131
   F     4.989446175513     5.929454172733     6.862675493634
