           5
comment
   C     6.000260887044     5.960964923308     5.992968496525
   F     5.559029299322     5.679741634385     4.762310945550
   F     6.911124785065     5.086778083408     6.375202103501
   F     6.488104714844     7.203104541351     5.983797594332
   F     4.967300205673     6.009675152627     6.857010208610
