           5
comment
   C     5.969539615587     6.023233275583     5.988769432398
   F     5.597521308412     5.625071128554     4.762337145121
   F     6.981542506099     5.083305850333     6.363986273605
   F     6.524198822859     7.205835702706     5.955397380338
   F     4.970913414373     5.925181385763     6.866393028414
