           5
comment
   C     6.012164600012     6.011836902078     6.020054271546
   F     5.569945634877     5.634819431420     4.754416379407
   F     6.905391800131     5.110729831561     6.421836882976
   F     6.559621837637     7.236760701652     5.953279155758
   F     4.944916222845     5.945399806723     6.870710959430
