           5
comment
   C     5.997347110887     6.037900352783     5.992122645870
   F     5.527152046094     5.660942718204     4.791188501292
   F     6.968956181669     5.127310164982     6.398516101327
   F     6.508766762977     7.213075812783     5.922915433822
   F     5.001877156617     5.971938574411     6.851991052930
