           5
comment
   C     5.993480384262     6.034767195771     5.988378547233
   F     5.576859237415     5.644810401466     4.742525136895
   F     6.912195372285     5.157393559708     6.344052717562
   F     6.473455590634     7.232333823520     5.972411812734
   F     5.002583082737     6.006068274430     6.886208394803
