           5
comment
   C     6.011472320818     5.963315603465     6.000101944323
   F     5.583783688581     5.665945425726     4.802697135676
   F     6.965029183130     5.102563930314     6.338458878065
   F     6.535181039008     7.197621573525     5.992195318718
   F     4.981018761680     5.948622776293     6.873055007569
