           5
comment
   C     6.036859411123     6.044554792882     5.964698921827
   F     5.529743638726     5.654910051035     4.766875448339
   F     6.915532915068     5.107875602563     6.431524666731
   F     6.471679983656     7.278918624896     5.922686265301
   F     4.932075788798     5.948012037277     6.873657975956
