           5
comment
   C     6.016700405586     5.981238326293     5.973199445227
   F     5.539324176356     5.656045261192     4.815748356613
   F     6.958318305255     5.122099495527     6.392668245018
   F     6.478250217154     7.285935063514     6.005679043950
   F     4.948057755544     5.993907760577     6.850143042980
