           5
comment
   C     6.011633617087     6.020190446616     6.040333685287
   F     5.565241300732     5.705753173007     4.827440542197
   F     6.928830886173     5.084786005003     6.362329113537
   F     6.500924522076     7.196162516361     5.949444478759
   F     4.962708226447     6.009840919734     6.842580381343
