           5
comment
   C     6.029766997677     5.953506003066     6.041888741784
   F     5.574200817266     5.629543105167     4.752260672841
   F     6.972414239828     5.134888573817     6.359813794430
   F     6.549419433805     7.228249699453     5.938512839828
   F     4.998359915749     6.002651510159     6.895306655676
