           5
comment
   C     5.972956270403     6.001203937784     6.014579369950
   F     5.584068206603     5.636343877650     4.787793030245
   F     6.968417456450     5.139799614518     6.368857651071
   F     6.479702227651     7.225641805695     5.968016759455
   F     5.012662572851     5.992585833328     6.921132211089
