           5
comment
   C     6.048197336430     6.009447416526     5.986064048375
   F     5.506510923708     5.639158838269     4.779103794559
   F     6.986730047112     5.110591701289     6.421167211614
   F     6.484784790473     7.192614173743     5.955359025285
   F     4.949673045841     6.009063409529     6.847819505124
