           5
comment
   C     6.032698619371     6.037150063414     5.981334286447
   F     5.596145552744     5.711093688853     4.751218142575
   F     6.931816500478     5.177643133711     6.383843871282
   F     6.504458598206     7.241859752678     5.940937308161
   F     4.939493237314     6.006032460979     6.893793802177
