           5
comment
   C     5.989711002941     5.971678859207     5.985555317307
   F     5.575635214800     5.698232413948     4.827324960502
   F     6.970727050497     5.102468628657     6.362788915454
   F     6.551242678002     7.231450987135     5.974944073925
   F     5.028859222117     5.962555190064     6.834326235629
