           5
comment
   C     5.983147460763     6.005524686260     6.008082003410
   F     5.583204895862     5.629821140881     4.750481676874
   F     6.926001329028     5.172553223871     6.394830292633
   F     6.484558665049     7.228788048791     5.940534156640
   F     5.029555187719     6.013107203557     6.916884544217
