           5
comment
   C     6.022820749278     5.984297361576     5.996140842636
   F     5.525623471521     5.620355958472     4.825648056371
   F     6.968799908209     5.146254109509     6.363769549068
   F     6.478253577948     7.249028176598     5.987005237196
   F     4.979315807013     5.989169896491     6.870109245651
