           5
comment
   C     6.048109343187     6.001080411162     6.047343695870
   F     5.585486325224     5.705087671083     4.818406001413
   F     6.954338278372     5.168721904523     6.359189293028
   F     6.503309660237     7.248688656667     5.930003697969
   F     4.954081663298     6.005314350249     6.916329178475
