           5
comment
   C     5.974982017097     5.961273346704     6.014167294007
   F     5.527101486035     5.622934233936     4.741471005329
   F     6.907550488442     5.162076447426     6.343531951361
   F     6.558116747527     7.246824845688     5.954906222955
   F     4.965815393110     5.941164855500     6.900875003431
