           5
comment
   C     6.032888700213     5.973295957551     6.034910542526
   F     5.518968426411     5.662477893386     4.821242698589
   F     6.955483865092     5.166202310111     6.347585205833
   F     6.504085705378     7.265609316638     5.990299472780
   F     4.949137236289     5.986751102893     6.861492262459
