           5
comment
   C     5.987668284825     5.999479129796     5.952195495328
   F     5.548648366354     5.662437905864     4.731464169878
   F     6.928143959545     5.113228818273     6.368191083737
   F     6.479425197323     7.252915923081     5.912999746794
   F     4.984093953129     5.932614453490     6.892978548845
