           5
comment
   C     5.961700939765     5.977153659777     6.018402089140
   F     5.543073231446     5.700661278287     4.759679450844
   F     6.974428988906     5.170033340260     6.341254633509
   F     6.513243234828     7.193193488818     5.962714002593
   F     4.986215066439     5.983095832499     6.916032253583
