           5
comment
   C     6.040758519974     5.951127505467     6.014506147181
   F     5.523038834658     5.692217094967     4.815888862130
   F     6.940164508561     5.108706173475     6.407444486960
   F     6.521751978546     7.218197716929     5.960549298706
   F     4.967003033352     5.937809469159     6.886555483662
