           5
comment
   C     6.044826508248     5.953359841953     5.988817630902
   F     5.532898818234     5.637963191819     4.796956289914
   F     6.983335534396     5.175277967040     6.417347477127
   F     6.504692990980     7.282394948898     5.984039993779
   F     4.991171834264     5.966051088208     6.875014831223
