           5
comment
   C     5.991269674553     5.970111202497     5.980258139231
   F     5.595802191806     5.701730623426     4.794068427365
   F     6.922762119474     5.167653475014     6.350023728872
   F     6.556381155732     7.270513540290     5.988584688547
   F     4.985044059851     5.959983627479     6.896456897380
