           5
comment
   C     5.997212857618     5.956007016801     5.989443588684
   F     5.508858150778     5.678694214885     4.749242675658
   F     6.945539773565     5.125689815368     6.373245973356
   F     6.503486294434     7.239131229248     5.980978912007
   F     4.970024157683     6.017035599569     6.878253698959
