           5
comment
   C     5.996124433195     5.967466181379     5.984434345768
   F     5.535793959045     5.661260408097     4.737461167020
   F     6.915080402030     5.088268814643     6.347943714174
   F     6.567007418112     7.210875302500     5.948423892548
   F     4.965837795795     5.956445872299     6.892237756103
