           5
comment
   C     5.995454182760     6.022329117825     6.020771644342
   F     5.546020176865     5.669353047133     4.746371064014
   F     6.925745885965     5.106944480642     6.336841542234
   F     6.519644942922     7.206549585511     5.940264275073
   F     5.011000108411     6.010478057460     6.912393046990
