           5
comment
   C     6.023534579254     5.970715643887     6.020434720682
   F     5.520551614531     5.615500247133     4.812260332173
   F     6.993829827832     5.114471494767     6.384250755754
   F     6.544251130680     7.271469532529     5.954061579597
   F     4.980936395279     5.942119254060     6.881368549312
