           5
comment
   C     5.951440163544     5.963866419347     6.023040305714
   F     5.526176191585     5.658592497421     4.790596879744
   F     6.921506792569     5.095935140631     6.432457170223
   F     6.528515861901     7.194851290707     5.919300747346
   F     4.956189223607     5.921391582493     6.906989267869
