           5
comment
   C     6.039693453820     5.952328313936     6.011409158989
   F     5.513222151597     5.697984552177     4.785906872507
   F     6.941560716794     5.177304423891     6.420438201057
   F     6.529028775236     7.199282590782     5.951741341021
   F     5.006275167521     5.996804281491     6.838019051338
