           5
comment
   C     6.040355188637     6.020010326828     6.032465791733
   F     5.570943846715     5.640048916758     4.766222616057
   F     6.969238764217     5.079632386576     6.405762792455
   F     6.488589950367     7.279179821436     5.994826489719
   F     4.992179705826     5.921854169811     6.875884284037
