           5
comment
   C     6.033391511166     5.977940940859     5.973872297917
   F     5.571054096099     5.630679331584     4.804653752134
   F     6.942492735439     5.101421113370     6.371463528841
   F     6.482230426110     7.189361821178     5.921990109430
   F     4.967959512835     5.929271647501     6.833398203952
