           5
comment
   C     6.000167337135     5.986811109076     5.976508734965
   F     5.571865703443     5.705848804143     4.777958391449
   F     6.927274599934     5.143552439391     6.416727124347
   F     6.538988295775     7.249354174401     5.920865147477
   F     5.025632112655     5.942673414414     6.890551691251
