           5
comment
   C     6.036016297997     5.954344658998     5.997811021640
   F     5.501131575041     5.684700502622     4.796244274504
   F     6.973846273340     5.156600120814     6.361765999866
   F     6.557972216066     7.240530335687     5.929768620440
   F     5.020444474760     5.931727104731     6.848720047534
