           5
comment
   C     5.960349047981     6.006875711309     5.965892504350
   F     5.552821283669     5.627053137709     4.748864842979
   F     6.972531374224     5.159415839903     6.338297932858
   F     6.480295203575     7.223658616764     5.963863359307
   F     4.988452358446     6.004498387854     6.882088988069
