           5
comment
   C     5.977780569326     6.045554018791     5.967779860723
   F     5.532931983143     5.690152328325     4.805462321178
   F     6.992258983205     5.079050382261     6.377617779404
   F     6.504724855949     7.222498056402     6.006073402762
   F     5.015963646229     5.945850077602     6.892726405621
