           5
comment
   C     6.043845038028     5.961234956074     6.023071076892
   F     5.534004785096     5.704965118299     4.756376572819
   F     6.949171954516     5.123233864630     6.394729361108
   F     6.542794091203     7.244895080191     5.922169008743
   F     4.966679514125     6.001494704890     6.843280693707
