           5
comment
   C     5.952142263325     6.020038700502     6.032039139241
   F     5.506954634560     5.677108282204     4.788153997534
   F     6.916446945683     5.080470219591     6.396943035193
   F     6.555679712417     7.201104389683     5.957694534384
   F     5.014550828743     5.979227465489     6.916174432663
