           5
comment
   C     5.977734674448     5.989300594993     6.030639646909
   F     5.571716276229     5.706163175827     4.782527727825
   F     6.960427743995     5.175170536979     6.364812385786
   F     6.530574748265     7.206573006690     5.979908585813
   F     4.987842826470     5.931995939700     6.892105435096
