           5
comment
   C     6.000668925797     6.029789923483     6.026481063998
   F     5.576671858829     5.624524737875     4.795181840966
   F     6.929152662407     5.107512742874     6.404529964814
   F     6.549838598743     7.268030944413     5.987326332447
   F     4.977999704396     5.933349364232     6.862475331179
