           5
comment
   C     5.969615596049     6.010130655023     5.973149852719
   F     5.501228024017     5.624305675951     4.746584774605
   F     6.909590904887     5.089927113719     6.413682484750
   F     6.494541797224     7.245386913831     5.995569758033
   F     4.933164954763     5.922535517583     6.871595778111
