           5
comment
   C     5.950196193746     5.986824061654     5.954283819635
   F     5.531587458656     5.636158708300     4.773210009472
   F     6.979712050182     5.147348641545     6.351934949548
   F     6.514852846526     7.274720424733     5.928064670586
   F     4.973750307569     5.973007998084     6.900957850977
