           5
comment
   C     6.037791443272     5.979776316557     6.035321615132
   F     5.559275927067     5.706772270732     4.781234431434
   F     6.904201979406     5.165374604880     6.429160546914
   F     6.563390386193     7.221680665522     5.977051105569
   F     5.017946743774     5.979387484286     6.925029907776
