           5
comment
   C     6.003006953961     6.004848999369     5.978216476094
   F     5.562539695714     5.668649610438     4.792794898925
   F     6.920487346879     5.162958686530     6.401926983434
   F     6.565211231140     7.222222222218     5.974113114140
   F     4.993312764303     5.926082933629     6.885499508521
