           5
comment
   C     5.967883636365     5.973638176734     5.956487071289
   F     5.580764157207     5.626898951576     4.745134188356
   F     6.971645614674     5.148239192005     6.433158341080
   F     6.563402065025     7.278851840033     6.004566181250
   F     5.025094718924     5.968543173726     6.863742989073
