           5
comment
   C     6.044687337526     5.976880959633     5.990175872560
   F     5.574522932990     5.658232457590     4.735516293957
   F     6.978427319957     5.142364669928     6.378738291056
   F     6.493467080519     7.226063097285     5.922826847606
   F     4.951881760168     6.006324709560     6.830862027877
