           5
comment
   C     6.002710190001     5.987863593015     6.005025830011
   F     5.547194561524     5.704810508950     4.808406308531
   F     6.903387177323     5.130882120656     6.388003068377
   F     6.473204589281     7.263265139626     5.950637867799
   F     4.998957969034     5.921910014194     6.877805023389
