           5
comment
   C     6.025353012681     5.990096178327     5.979777000643
   F     5.592628725616     5.704070754167     4.791183156292
   F     6.990181875841     5.108755192567     6.372951489368
   F     6.500535109215     7.203846343949     5.958255148525
   F     4.951910970262     6.012700464231     6.910066769184
