           5
comment
   C     5.964754511793     6.008660258541     6.007956299915
   F     5.519664310616     5.706174811003     4.774432619945
   F     6.954540001421     5.143920279189     6.420604807774
   F     6.528883425887     7.250978419690     5.961396834915
   F     4.972476523341     5.949953221161     6.913969752127
