           5
comment
   C     6.044531425629     5.964417600098     5.999618613052
   F     5.524202323773     5.619071802081     4.792539869789
   F     6.940313819406     5.102529522229     6.366374736589
   F     6.550264708833     7.255460476799     5.947529226294
   F     4.936007597851     5.970678704632     6.897063127421
