           5
comment
   C     5.994327190500     6.029725857943     6.021873359925
   F     5.543953905649     5.695959675129     4.761109198728
   F     6.925697115093     5.164443454856     6.418765166478
   F     6.510851768912     7.238174014276     5.911691750502
   F     5.027537115286     5.994808029807     6.828992788684
