           5
comment
   C     6.032398432102     6.026278242774     6.008641374142
   F     5.576027050729     5.670717638478     4.808472414482
   F     6.988861930470     5.176887600274     6.394208948810
   F     6.485496462504     7.226065289572     6.000481438203
   F     5.027994973627     6.011259820782     6.923440262773
