           5
comment
   C     6.027973956573     5.998614783052     6.039253372497
   F     5.520595472700     5.621867497711     4.803315257402
   F     6.916747031903     5.176366941060     6.404222286872
   F     6.538336948301     7.195779480173     5.927808645772
   F     4.948810142227     5.937129645217     6.911526833898
