           5
comment
   C     5.999078788636     6.047050018261     5.978710911128
   F     5.582856352556     5.656901502473     4.785531283454
   F     6.995397322561     5.112931113887     6.350296582009
   F     6.485825914093     7.191334529028     5.913699395079
   F     4.987882176642     6.001463432172     6.861535121715
