           5
comment
   C     6.019933994189     6.034319001392     5.958126934183
   F     5.551515145784     5.643386706620     4.762549057002
   F     6.984577146109     5.171012627880     6.386689062819
   F     6.560249230051     7.230583050934     5.984559573871
   F     4.975890078786     5.971891722926     6.922479172568
