           5
comment
   C     5.997908573696     6.025692501177     6.031685966820
   F     5.517100300196     5.647855222275     4.826267740461
   F     6.901973265136     5.111118556547     6.339145877778
   F     6.501449823631     7.191983304702     6.001807984556
   F     4.959955353029     5.941799452486     6.907812419864
