           5
comment
   C     5.955464407644     6.040189659365     6.030038169453
   F     5.527197382411     5.688458447977     4.740656405203
   F     6.998118612433     5.129516396310     6.336329490628
   F     6.562877353532     7.208856652880     5.943976379265
   F     5.009111520596     5.991530131273     6.917148651211
