           5
comment
   C     6.032445266848     5.971821889656     5.981976836974
   F     5.595947876804     5.650011854506     4.737805149686
   F     6.990928237892     5.130739852657     6.416720348370
   F     6.511167349149     7.190007995179     5.968022373002
   F     5.014209826891     5.959483603998     6.907188830390
