           5
comment
   C     5.965152985165     5.959114487658     6.022895083933
   F     5.582861032475     5.675518878949     4.782502735155
   F     6.927929528949     5.149216270434     6.334715979669
   F     6.553130242224     7.195111565076     5.950830596997
   F     4.933896945505     5.948018062957     6.876547088944
