           5
comment
   C     6.038281054148     6.016992355652     6.049917680499
   F     5.504743723896     5.629484428562     4.765546716289
   F     6.969994324638     5.138203242013     6.340406113450
   F     6.511120855128     7.257883688009     5.923957813354
   F     4.931581246545     5.973013334842     6.856329344939
