           5
comment
   C     6.012562060687     6.004513715512     5.997710195191
   F     5.591833391737     5.668557220049     4.747786645899
   F     6.974794207822     5.085604634449     6.391839839525
   F     6.481253596204     7.203305926098     5.934460057909
   F     5.009235827061     5.969667333718     6.915018121716
