           5
comment
   C     5.995255360548     5.983302936868     5.989263364238
   F     5.552781054306     5.652878011417     4.795971932500
   F     6.986994204490     5.157597841147     6.392294876703
   F     6.498341210322     7.283073066029     5.989893625429
   F     4.939893863089     5.949429673287     6.884412933518
