           5
comment
   C     5.985035148245     5.994724719322     6.046943725560
   F     5.507934165744     5.710477827819     4.795839233492
   F     6.917344710703     5.129388016473     6.382682038757
   F     6.564600722417     7.263125215953     5.937074015950
   F     4.995666439570     5.949544385382     6.918273402499
