           5
comment
   C     6.013958796375     5.992837973197     5.972778512336
   F     5.535209502045     5.613018216383     4.788196636788
   F     6.935014170531     5.092476307751     6.343216227910
   F     6.487500097342     7.210941281303     5.967811845252
   F     4.979159536464     5.965037368079     6.865125448517
