           5
comment
   C     5.989392700936     6.042053158350     6.016616402760
   F     5.508171102659     5.671432966323     4.771374687650
   F     6.931345131208     5.154161867417     6.358158186713
   F     6.486578955380     7.262722710420     5.914898415454
   F     4.993831358310     5.985439527807     6.918009835998
