           5
comment
   C     5.977760812203     6.020225711355     6.033312942631
   F     5.555857820248     5.626506909708     4.817021942912
   F     6.909205311962     5.148443296493     6.417346650811
   F     6.487607116224     7.227174592501     5.977683710153
   F     5.024627040717     5.970434871879     6.926100906432
