           5
comment
   C     5.979438304347     6.023536713237     6.002418067128
   F     5.596547835482     5.620886558438     4.821669292338
   F     6.942923825916     5.167598801629     6.354647055857
   F     6.488725303644     7.215288202179     5.922739991205
   F     4.967572831148     5.944942372553     6.919300599564
