           5
comment
   C     5.958543859311     6.000627235861     5.994472755290
   F     5.561604387288     5.666354942418     4.804575014655
   F     6.905196772569     5.082960340461     6.376373810770
   F     6.488991906699     7.245033708860     5.969798806761
   F     4.991019393662     5.979836762072     6.844212961341
