           5
comment
   C     6.027104915381     5.955654595119     5.997865151063
   F     5.540529649726     5.707753006582     4.805448907898
   F     6.907968383126     5.157369171862     6.371037347226
   F     6.550874369680     7.238679430814     5.970132504226
   F     4.969953468367     5.965961750787     6.850357763264
