           5
comment
   C     6.025977907428     6.030105875318     6.018343063335
   F     5.520153402629     5.619187563079     4.780652098851
   F     6.917598049209     5.149562362522     6.429053098110
   F     6.477877673875     7.217826441855     5.946101791746
   F     5.022989501729     6.013732267548     6.915592675684
