           5
comment
   C     6.017184328293     5.976062786698     5.973043477683
   F     5.570999727559     5.703062581018     4.817694067378
   F     6.983079911845     5.104040075570     6.421104519588
   F     6.496452763439     7.272481762518     5.984869316113
   F     4.963505390864     5.971543036685     6.922218587743
