           5
comment
   C     5.962890202790     5.987414253948     5.980245378319
   F     5.575727188772     5.676170953832     4.769208043050
   F     6.984901325947     5.176453896460     6.407469042164
   F     6.480798785547     7.206601875851     5.974864323376
   F     4.959252398433     6.013254892900     6.900959481769
