           5
comment
   C     5.964998298469     5.958254881624     6.029402980519
   F     5.547127811749     5.649034673957     4.809197655581
   F     6.981871573540     5.114643705344     6.350358156517
   F     6.568411270361     7.238853853026     5.943635130962
   F     4.966129482649     5.961308029159     6.856968826712
