           5
comment
   C     6.005982377595     6.033469936603     5.956855298307
   F     5.528610246743     5.647044939458     4.820347443973
   F     6.937111475302     5.127859661902     6.396900766140
   F     6.563330276469     7.205483430943     5.997189272507
   F     4.951296027582     5.931856689630     6.877644722192
