           5
comment
   C     5.954692288097     6.027167133640     5.980645773009
   F     5.581884408321     5.662683743591     4.757677464355
   F     6.986037329847     5.080017408134     6.406353074598
   F     6.534873490101     7.199864601407     5.952327400944
   F     4.962710423181     5.925972267664     6.880724585247
