           5
comment
   C     6.034158874541     6.003482325843     6.020565118881
   F     5.511182806104     5.674019125038     4.792483704123
   F     6.947662766075     5.109115112025     6.378864228243
   F     6.509992493219     7.204459499212     5.948673064294
   F     4.990581910726     5.938161284504     6.901519390503
