           5
comment
   C     5.985843343223     6.027626772390     5.955669018518
   F     5.519962943996     5.700041423951     4.769022882339
   F     6.925872133260     5.156822969240     6.416708165926
   F     6.487852074504     7.260858740279     5.918231546725
   F     4.966015900364     5.957095359852     6.883414812414
