           5
comment
   C     6.040005909330     5.985371273199     5.967441741152
   F     5.519103692517     5.620362279801     4.823583362419
   F     6.945672912693     5.151888101605     6.346501889994
   F     6.497549360264     7.265682620153     5.948136984263
   F     5.019521865057     5.955796882771     6.866360492660
