           5
comment
   C     6.030909330403     6.010860756135     5.984157940381
   F     5.552285021472     5.684928320468     4.749270957573
   F     6.971255133773     5.088418517668     6.367861780834
   F     6.569947955613     7.253186402696     5.921928599160
   F     5.017587727396     5.990199733437     6.906055293959
