           5
comment
   C     5.962843534355     5.962513261058     6.040246772704
   F     5.525574737017     5.632902367975     4.729915983141
   F     6.908328697814     5.093995358177     6.352385116445
   F     6.552230889206     7.285170131962     5.937556584770
   F     4.978365813191     6.012854847898     6.923820157843
