           5
comment
   C     6.002764855377     5.994467889054     5.962607921738
   F     5.538376429233     5.630234771598     4.795203566742
   F     6.995002702863     5.169582548958     6.383009496850
   F     6.503422041000     7.207705006276     5.940583686865
   F     4.970727755637     5.952389802089     6.893865759140
