           5
comment
   C     5.962676544236     5.952478543299     5.996708524049
   F     5.583042558304     5.685540762664     4.790202665287
   F     6.934550953779     5.102129726542     6.432634146937
   F     6.533067534091     7.191533496201     5.965032998714
   F     4.976900889929     6.002297636196     6.852056934759
