           5
comment
   C     6.027710550190     6.021553260858     5.960174610986
   F     5.540516869210     5.679947528479     4.827223364967
   F     6.974500899116     5.133197573839     6.395290478209
   F     6.477284867242     7.271911967725     5.984668961851
   F     4.938357582288     5.961786721185     6.917029479057
