           5
comment
   C     5.950129123782     5.963926453704     6.032235291026
   F     5.580176149074     5.711473885229     4.755931239277
   F     6.937076061179     5.117787187231     6.365939218814
   F     6.482465154137     7.220587407046     6.005379301551
   F     4.951348470146     5.930886305011     6.889125692220
