           5
comment
   C     5.993538709432     5.970778805415     6.016821192609
   F     5.507031219172     5.692322725667     4.814751408463
   F     6.919010752446     5.138162631948     6.434439118353
   F     6.507881577075     7.229114599077     5.989620923958
   F     5.000956196310     5.948582687396     6.835861913166
