           5
comment
   C     5.981603400158     5.965290699971     6.022616747099
   F     5.503900225063     5.632408419953     4.791832203306
   F     6.985618755554     5.162194806115     6.338058895764
   F     6.475294359978     7.248969054728     5.967457744511
   F     5.004030241719     5.921231434545     6.836987274494
