           5
comment
   C     5.986513014608     5.976271743469     6.037722273598
   F     5.515260276080     5.612512701195     4.819513876718
   F     6.990511304682     5.120740656729     6.342054265395
   F     6.482389143175     7.275937928439     5.918387385630
   F     4.991544677335     5.944288749252     6.854548647189
