           5
comment
   C     5.982725058780     5.952760835134     6.012688503026
   F     5.550402501689     5.626863522552     4.793503206088
   F     6.922152886011     5.165438045246     6.424643567118
   F     6.552399491351     7.231631386739     5.909657220551
   F     4.970554437972     6.014372408650     6.881754394695
