           5
comment
   C     5.998236083244     6.032256071993     5.983023028363
   F     5.508920977240     5.698209761925     4.770175423431
   F     6.993771828298     5.166423904325     6.411497957639
   F     6.535287556793     7.282317327003     5.917202491764
   F     4.953178731650     6.004277923172     6.914057406159
