           5
comment
   C     5.987681004456     5.954653326121     5.985936189008
   F     5.546403722440     5.630288748563     4.785467989026
   F     6.962507638248     5.117953859024     6.361815142498
   F     6.515176960845     7.274299882113     5.971482243235
   F     4.955497970474     5.981032134899     6.919462356116
