           5
comment
   C     5.993046478327     5.988830740612     5.989759128269
   F     5.578500987588     5.660604358328     4.779706131020
   F     6.965179785487     5.107779831753     6.389213101945
   F     6.523648589542     7.228668124176     5.981227394877
   F     5.006271071494     5.976059570680     6.906352569237
