           5
comment
   C     6.007514618808     5.950009051736     6.012315743448
   F     5.587937726614     5.642921786130     4.735926092397
   F     6.972943268117     5.146255793457     6.429412338773
   F     6.521630997416     7.226979091734     5.931534100240
   F     5.022046551266     6.012628173763     6.859486630517
