           5
comment
   C     5.987293836479     6.029701122550     6.048558008166
   F     5.555980420949     5.686227300464     4.737462978186
   F     6.973179127212     5.117411224043     6.372991477216
   F     6.501158257360     7.255115422134     5.924484030632
   F     4.963054391318     5.946410259422     6.908855693443
