           5
comment
   C     5.998643929120     5.991563161115     5.974318195654
   F     5.585038780280     5.647827654568     4.800392361223
   F     6.979297883233     5.127418872748     6.373854417337
   F     6.486924032001     7.287010579340     5.926707890592
   F     5.007118751965     5.931635068827     6.906409299704
