           5
comment
   C     6.004323705151     5.994199805825     5.953771505024
   F     5.592280954936     5.645938686192     4.759279543026
   F     6.956217991241     5.150912957626     6.399288038637
   F     6.505518423202     7.207922561414     5.915426710979
   F     4.956559418137     6.004828998101     6.839566045748
