           5
comment
   C     5.967623986821     5.959214608723     5.987517312386
   F     5.529187950607     5.614671233277     4.733799552852
   F     6.982729560795     5.135386179492     6.387856939116
   F     6.555931199291     7.233042578113     5.942767998166
   F     4.999467244274     5.943882729746     6.839693234749
