           5
comment
   C     5.954744337155     5.985560966355     6.030908731961
   F     5.501177918537     5.622759667112     4.826301889732
   F     6.900761930488     5.162114037328     6.366758861492
   F     6.498171061180     7.236793468234     5.992155802049
   F     4.963230561018     5.946476757577     6.871901078387
