           5
comment
   C     6.028513905062     6.020945904476     5.967151706161
   F     5.589804432190     5.687053867037     4.738708840385
   F     6.938066718245     5.162442992778     6.411284808355
   F     6.498452067603     7.287050597223     5.958438973464
   F     4.957334468509     6.002510261982     6.885824027732
