           5
comment
   C     5.953508102433     6.037684104151     6.021591166484
   F     5.515759861421     5.616606635418     4.796096325531
   F     6.909510848701     5.161726961505     6.429323452578
   F     6.539790106001     7.227817324403     6.004182386058
   F     4.952731899423     5.967778838058     6.911317661595
