           5
comment
   C     6.007061179523     6.029422240287     6.003574671627
   F     5.502470405771     5.666911586564     4.756374576786
   F     6.946645369084     5.099629387759     6.403528655280
   F     6.507788774646     7.287709784711     5.920079726944
   F     5.013084415691     6.009884588588     6.920496607670
