           5
comment
   C     5.958135114266     6.030303570211     5.952313622421
   F     5.593078550904     5.653137687527     4.811230066540
   F     6.985472162284     5.105920114589     6.417373796978
   F     6.562070456631     7.238333644455     6.008226954620
   F     4.965376318614     5.984342292654     6.874424954904
