           5
comment
   C     6.011567015858     5.985326234905     6.003251814291
   F     5.581038295150     5.628455790974     4.774650271172
   F     6.967490520777     5.149703670350     6.371902628832
   F     6.478613810749     7.208318415487     5.969891549493
   F     4.948288966780     5.928048727037     6.867836965858
