           5
comment
   C     5.989987703744     5.989588262445     6.044056646115
   F     5.552212683878     5.640801258459     4.759892231114
   F     6.987251520838     5.149139096622     6.338365145733
   F     6.543122450910     7.209655328391     5.915995714170
   F     5.017699119723     5.926386779947     6.857936420180
