           5
comment
   C     5.982246776559     6.041246482406     6.029669933914
   F     5.555680138989     5.660868206437     4.803172132447
   F     6.920638800349     5.087013449950     6.338173172094
   F     6.526416786686     7.217033990699     5.949530684910
   F     4.947256317660     5.977979829260     6.893756238166
