           5
comment
   C     6.049302436789     5.996391159554     6.010339047651
   F     5.556403494252     5.648205498796     4.790144918654
   F     6.940820981196     5.110046022699     6.362124494377
   F     6.521848981683     7.224972552241     6.000832687164
   F     4.979857234023     5.926061104242     6.863182639498
