           5
comment
   C     6.013421443622     6.043789744635     6.043158921700
   F     5.535852654044     5.631903247585     4.827376334374
   F     6.978305022006     5.082122130354     6.355139919680
   F     6.491965952767     7.259294196445     5.983636766448
   F     4.965181706398     5.960972087136     6.857419335893
