           5
comment
   C     6.001393641257     6.038820999560     6.019160534822
   F     5.559949727774     5.704605868416     4.740398999471
   F     6.948817165109     5.161201531032     6.400954531745
   F     6.470893204184     7.195858308503     5.963080515093
   F     4.981347970823     5.950043003778     6.899042494460
