           5
comment
   C     5.977941790251     5.986896602555     6.019763938392
   F     5.520874978111     5.679942555403     4.773899824829
   F     6.997870077246     5.153792733105     6.338138940378
   F     6.524292092905     7.228603377396     5.940069267349
   F     4.975595389674     5.927727518584     6.917265591333
