           5
comment
   C     5.959994389680     5.985442599749     5.970089054837
   F     5.574014270118     5.643674673353     4.738855977384
   F     6.973729922210     5.081858201918     6.356629148738
   F     6.486102522602     7.201319684943     5.948640526793
   F     5.029328384339     5.953698093076     6.870233006175
