           5
comment
   C     6.011129222210     6.013516159497     5.991894644996
   F     5.535119910956     5.670071580753     4.790584451337
   F     6.954168380431     5.132743378646     6.410695672065
   F     6.516070856941     7.256191785324     5.999505053982
   F     4.975954527543     5.937687230510     6.889992104848
