           5
comment
   C     6.038068998540     6.010064215541     5.972176146282
   F     5.512869793338     5.683303391914     4.802719672145
   F     6.985894956516     5.157298093090     6.339755432873
   F     6.495994302533     7.236362564138     5.959913221849
   F     4.957851098519     5.995317299552     6.888194087758
