           5
comment
   C     6.045454307092     6.020232098924     6.027299194628
   F     5.511470059211     5.632737118219     4.789362812419
   F     6.945634435822     5.113619468838     6.373657854839
   F     6.483948261891     7.210419139562     6.001397154792
   F     4.961550636352     6.010211723395     6.855223346949
