           5
comment
   C     5.997049390902     6.032395324555     6.016971935223
   F     5.563653378140     5.681071864188     4.793872052971
   F     6.899748157204     5.171182596508     6.403475125094
   F     6.546441034665     7.211023006326     5.956351275145
   F     4.952979220096     5.977862767507     6.923754770383
