           5
comment
   C     5.972507653157     5.965093580449     5.983040818673
   F     5.553741452376     5.639720297236     4.785268842829
   F     6.900862136396     5.159189434803     6.378790162673
   F     6.511998826307     7.250190169474     5.988485314100
   F     4.987204126473     5.985429243259     6.872976828860
