           5
comment
   C     6.033428400806     6.011531405130     6.028240826804
   F     5.545264370808     5.704563466975     4.802029182185
   F     6.994099009090     5.174611589556     6.338394641510
   F     6.499544189773     7.212474319984     5.975850336775
   F     4.942062487798     6.018977236473     6.918441913119
