           5
comment
   C     6.035639095241     5.980511720760     5.953394295050
   F     5.584900696853     5.613760920245     4.752240227121
   F     6.960200204334     5.128500824386     6.384693648929
   F     6.511784621486     7.275441299885     5.940469984230
   F     4.985483137117     5.929191635553     6.831400020076
