           5
comment
   C     6.049509256128     5.963137195774     6.025851690777
   F     5.590752279780     5.693683460475     4.786008310346
   F     6.908688397991     5.161436018545     6.372831617046
   F     6.542803059723     7.266962346335     5.919742209846
   F     4.944204140636     5.977663511787     6.909149287832
