           5
comment
   C     5.988741071923     5.988391055751     6.045465405223
   F     5.561187003924     5.646016640732     4.753842897345
   F     6.902062680509     5.085783915791     6.400401116123
   F     6.497743927101     7.200639387796     5.994686653427
   F     5.030450882967     6.015466105779     6.927299895305
