           5
comment
   C     6.020221020310     6.010457090873     6.017593392947
   F     5.535573466446     5.626685807462     4.797943798923
   F     6.948361582362     5.141257617959     6.432645960601
   F     6.473027534056     7.285389741923     5.984932167511
   F     4.968105765590     5.936905796504     6.873877862962
