           5
comment
   C     5.967060344741     6.005693435136     5.973353268586
   F     5.536190244135     5.649884241520     4.759122964628
   F     6.972973065643     5.080907253559     6.365224850161
   F     6.569631308592     7.269777918647     5.951116817430
   F     4.994705331763     5.927257282105     6.870042413897
