           5
comment
   C     5.972513608570     6.036186882925     6.035429447338
   F     5.558368554058     5.682180182430     4.746884416025
   F     6.959298831277     5.148103088896     6.352832067252
   F     6.551128601045     7.276266713131     5.972961530424
   F     4.946457798355     5.970570458499     6.886148034180
