           5
comment
   C     5.989081334933     6.049864051866     6.020271103557
   F     5.565735624612     5.655663654212     4.814413977047
   F     6.921980427189     5.172638193086     6.387001422869
   F     6.549985595346     7.255676386010     5.951654429021
   F     4.977309592273     6.010732767665     6.863102654093
