           5
comment
   C     6.043894650839     5.953005721003     6.036031027821
   F     5.595864409113     5.612941992612     4.768560677818
   F     6.923758894049     5.078115807368     6.384617794172
   F     6.547023434793     7.191959104285     5.922722350885
   F     4.932382577955     5.948745303931     6.831076343362
