           5
comment
   C     5.968545782198     6.043799121121     5.991498617440
   F     5.589030123291     5.687173236910     4.737458071234
   F     6.899721409340     5.118510151107     6.364539995493
   F     6.550518979849     7.278959209070     5.992185589517
   F     4.990640356526     6.020135556003     6.888541116151
