           5
comment
   C     5.963349650037     5.967359266758     5.984621887359
   F     5.516875358646     5.688470227624     4.773380262968
   F     6.951419111743     5.176096837420     6.349374764722
   F     6.475813922188     7.197038348525     5.936568055916
   F     4.970660435613     6.011242896812     6.846179563231
