           5
comment
   C     6.038723718636     5.965836334137     6.035368580286
   F     5.544490059743     5.709255205937     4.772212489187
   F     6.990264062194     5.151930550613     6.414693951474
   F     6.569261298068     7.281477410270     6.003757767761
   F     4.984474571370     5.993232237692     6.877202199846
