           5
comment
   C     6.040908097946     6.043573978755     5.970153283336
   F     5.558451427285     5.642184727899     4.818433390539
   F     6.992083868554     5.152568294445     6.341365620687
   F     6.568286398840     7.237714995041     5.957134426487
   F     4.973515119888     5.927500693225     6.923819054598
