           5
comment
   C     6.017730565048     6.027730587220     6.039467385326
   F     5.557377710867     5.656889715794     4.796736147981
   F     6.967268939602     5.105651378549     6.404425661552
   F     6.527935004742     7.259626417787     5.939597890488
   F     5.000585915772     5.929609465696     6.858660894078
