           5
comment
   C     6.019706909340     5.961088310836     5.975085786691
   F     5.544459545238     5.629893461386     4.752255401183
   F     6.905468021223     5.126098544115     6.384962994635
   F     6.524363080058     7.284513380582     5.945559061374
   F     5.015615750868     5.924014315013     6.832150560948
