           5
comment
   C     5.976766160857     5.983083737923     5.954745492906
   F     5.561993932373     5.710196076453     4.782355883839
   F     6.905514840648     5.088127143599     6.382473942202
   F     6.493853332587     7.205570428230     5.955272355847
   F     5.023548525450     5.977526670023     6.906214246368
