           5
comment
   C     6.039305818109     5.963331926942     5.966572050013
   F     5.572444691833     5.698580932667     4.797427685354
   F     6.911417188618     5.134813875762     6.340917193384
   F     6.493912306889     7.201834369561     5.952160103116
   F     4.950034182048     5.936663462715     6.844890208733
