           5
comment
   C     6.031053559860     6.039176981246     6.005838265324
   F     5.544838397785     5.698364461333     4.816825124882
   F     6.938784750744     5.087157684552     6.414173711773
   F     6.530046544941     7.247616517188     5.925274360165
   F     5.003568923119     6.008055582135     6.864630888896
