           5
comment
   C     5.964552193582     6.023193700404     5.985366311118
   F     5.525366894107     5.620688087543     4.824344002856
   F     6.928107438802     5.148079692700     6.402700288018
   F     6.518268188597     7.272387480520     5.913305662302
   F     4.941056252103     5.924571210360     6.837781851627
