           5
comment
   C     6.023387689637     6.020427925049     5.950443010948
   F     5.538825183337     5.707576844635     4.761982446611
   F     6.945959972597     5.146235797635     6.380909591105
   F     6.476981386794     7.195312608819     6.003069615513
   F     4.937698184764     5.986665740567     6.926472039269
