           5
comment
   C     6.014630592619     6.001837002581     6.042695299357
   F     5.544767419689     5.690351153448     4.784629153279
   F     6.908955341724     5.134995308529     6.378420740256
   F     6.500576628437     7.262935994023     5.922793803140
   F     4.985960655957     6.017698780009     6.895489682075
