           5
comment
   C     6.039163308130     5.959911661364     6.042314791431
   F     5.502663025258     5.664505348125     4.753258966287
   F     6.903852312716     5.139385002280     6.384565266834
   F     6.482992371772     7.263814360688     5.969447306157
   F     5.025961205312     5.981392633151     6.913698943709
