           5
comment
   C     5.950751130334     5.987724469255     6.018238625753
   F     5.555358860896     5.688426173203     4.760360694728
   F     6.919179545047     5.146272616728     6.361208496319
   F     6.548219080800     7.216606051282     5.984047602242
   F     5.013459678688     5.991047125151     6.848109757230
