           5
comment
   C     5.996059965091     5.956805876039     5.974163132937
   F     5.553275751367     5.647834080089     4.816855476219
   F     6.912854466780     5.098496649029     6.365150732623
   F     6.491714386288     7.194189342547     5.922162820943
   F     4.975049595926     5.965728986826     6.903834761870
