           5
comment
   C     6.043853548896     5.961006918435     6.020519613971
   F     5.570829162209     5.673828644379     4.819607743556
   F     6.914674236259     5.109463118936     6.407227878233
   F     6.546494606109     7.199401502444     5.963176023457
   F     4.999009991525     5.964366580108     6.852353324094
