           5
comment
   C     6.023612107621     6.021075373518     5.988292244131
   F     5.523714724088     5.698812481462     4.779168893821
   F     6.987804510614     5.166768984018     6.433044756117
   F     6.529146268237     7.198095502907     5.980107011399
   F     4.943041415345     6.019575566803     6.837991705448
