           5
comment
   C     6.043002872220     6.002626885103     6.028349746376
   F     5.514153652799     5.691840824488     4.808387405267
   F     6.962921887410     5.145895166496     6.399672156556
   F     6.514112395206     7.234492875420     5.914205249641
   F     4.995941948560     5.973937460086     6.900541417515
