           5
comment
   C     6.033960096357     5.997695995543     6.040427270353
   F     5.567813247301     5.640481373485     4.776410950725
   F     6.981883564994     5.106137952708     6.403240345495
   F     6.480121060153     7.194165010278     5.914357843771
   F     4.938286842773     5.956216218373     6.865612179302
