           5
comment
   C     6.022200513776     5.996138651811     5.967490476750
   F     5.588869647331     5.681945653589     4.821990449312
   F     6.907835729636     5.109357323299     6.419492031873
   F     6.510438640225     7.194570980098     5.940401444756
   F     5.015755407391     5.921382601354     6.924536669841
