           5
comment
   C     5.968864681903     6.041196992181     5.971324495350
   F     5.533359735155     5.614561017839     4.777046820340
   F     6.927923535143     5.144392792496     6.343238920376
   F     6.504603759986     7.255950249632     5.977595973024
   F     5.027515738639     6.005536766401     6.915720655122
