           5
comment
   C     6.018310582806     6.035399283634     5.977006397660
   F     5.591588701260     5.694743111454     4.763097619782
   F     6.965210941953     5.085686347901     6.370594090253
   F     6.483796054889     7.207077057746     5.990440725265
   F     4.962973460178     5.943800192005     6.841401865454
