           5
comment
   C     5.986981110559     6.042485122757     5.992323780696
   F     5.568530973953     5.664935042573     4.803765895711
   F     6.973938691902     5.161189530754     6.402989659209
   F     6.473428030773     7.256735813425     5.943873679623
   F     4.937133421558     5.982702575908     6.843823015462
