           5
comment
   C     6.019147604592     6.002091242352     5.990798270664
   F     5.540813956408     5.691139426901     4.822754833782
   F     6.924496779760     5.135618784872     6.388691676717
   F     6.501982011083     7.266662215947     5.929496878394
   F     4.950018666587     6.002402997836     6.843024901235
