           5
comment
   C     5.950713992263     6.035228901033     6.042021659583
   F     5.576576429255     5.631627650912     4.763398512621
   F     6.933431036241     5.174848665168     6.416841910251
   F     6.540395334987     7.238696142675     5.938689942248
   F     4.958379887319     5.952266541523     6.836217497527
