           5
comment
   C     6.042107041069     6.017473403366     6.020704797756
   F     5.591025100297     5.691868311799     4.769077526550
   F     6.950787023089     5.099795475590     6.389242592554
   F     6.553058782215     7.270617043407     5.954870660984
   F     4.982500820276     5.997040268015     6.865356160798
