           5
comment
   C     5.963492767052     5.979463909964     5.967028290623
   F     5.546605973968     5.632200245074     4.765805831254
   F     6.980483018287     5.168099646421     6.375874895213
   F     6.545568288742     7.270831664273     5.973621679944
   F     5.029844531063     6.019591910489     6.857289175950
