           5
comment
   C     6.046561630215     5.988445239214     6.037448059868
   F     5.550147513764     5.668132688504     4.824630687111
   F     6.940380514978     5.109257659956     6.354569208629
   F     6.485004319898     7.243454417184     5.989648698116
   F     4.995992177697     5.926184110231     6.869698612350
