           5
comment
   C     5.960320064454     6.017669136522     5.956267618093
   F     5.556125331436     5.690869973301     4.798927469906
   F     6.962303379394     5.102240447688     6.360869404191
   F     6.537010465022     7.201887873926     5.991479590916
   F     4.945759566403     5.986160315321     6.872135725808
