           5
comment
   C     5.998094548104     5.957686613875     6.025243098320
   F     5.546992746413     5.634819840224     4.793727847938
   F     6.969967126923     5.080861739942     6.406756245934
   F     6.480537660369     7.261636774585     6.006705235978
   F     4.998424073164     5.943726902972     6.889895681157
