           5
comment
   C     5.959788429113     6.049610543882     5.979716875994
   F     5.596930844847     5.668427900554     4.817056482220
   F     6.974240561418     5.133957741700     6.386354994361
   F     6.534854346067     7.257486670993     5.945374208488
   F     4.987923888089     6.002881162595     6.906559009692
