           5
comment
   C     6.048168572695     5.950682511858     6.016371370673
   F     5.528221342082     5.653048118184     4.809597598347
   F     6.910107881186     5.135049202886     6.411417853024
   F     6.490228541400     7.200738647224     5.919568471992
   F     5.002004894353     5.984840971748     6.833435146445
