           5
comment
   C     5.996225099480     5.951338126349     5.967780979311
   F     5.593070644325     5.673681207773     4.797657296299
   F     6.954662659445     5.152472851762     6.357429287892
   F     6.539361674939     7.214137813047     5.974073532093
   F     4.990622476553     5.985001622773     6.884370554080
