           5
comment
   C     5.957814108120     5.950141055558     5.958747591971
   F     5.563867582239     5.663985020228     4.755362017457
   F     6.919930920058     5.117942483524     6.415728909599
   F     6.564079624061     7.264257688302     5.948833783795
   F     4.941196452519     5.976980006489     6.898185818181
