           5
comment
   C     6.023825388197     5.996942983127     5.982808433015
   F     5.568613940336     5.649131200187     4.813340379512
   F     6.918735242269     5.111684408934     6.428911203711
   F     6.531568475086     7.260966680705     5.911510261064
   F     4.963221139316     5.921630728645     6.903902326482
